/*--------------------------------*- C++ -*----------------------------------*\
| =========                 |                                                 |
| \\      /  F ield         | OpenFOAM: The Open Source CFD Toolbox           |
|  \\    /   O peration     | Version:  3.0.1                                 |
|   \\  /    A nd           | Web:      www.OpenFOAM.org                      |
|    \\/     M anipulation  |                                                 |
\*---------------------------------------------------------------------------*/
FoamFile
{
    version     2.0;
    format      ascii;
    class       volScalarField;
    object      T;
}
// * * * * * * * * * * * * * * * * * * * * * * * * * * * * * * * * * * * * * //

dimensions      [0 0 0 1 0 0 0];

internalField   uniform 0.9;

boundaryField
{
    movingWall
    {
        type            fixedValue;
        value 		uniform 0.9;
    }

    //streamwiseIn
    //{
    //    type            fixedValue; 
    //    value           uniform (0);
    //}

    //streamwiseOut
    //{
    //    type            fixedValue; 
    //    value           uniform (0);
    //}
    
    streamwiseIn
    {
        type            cyclic; 
        neighbourPatch  streamwiseOut;
    }

    streamwiseOut
    {
        type            cyclic; 
        neighbourPatch  streamwiseIn;
    }

    CPLReceiveMD 
    {
        type            fixedValue;
	value 		uniform 373.15;
    }

    front
    {
        type            cyclic;
        neighbourPatch  back;
    }

    back 
    {
        type            cyclic;
        neighbourPatch  front;
    }

}

// ************************************************************************* //
