/*--------------------------------*- C++ -*----------------------------------*\
| =========                 |                                                 |
| \\      /  F ield         | OpenFOAM: The Open Source CFD Toolbox           |
|  \\    /   O peration     | Version:  3.0.1                                 |
|   \\  /    A nd           | Web:      www.OpenFOAM.org                      |
|    \\/     M anipulation  |                                                 |
\*---------------------------------------------------------------------------*/
FoamFile
{
    version     2.0;
    format      ascii;
    class       dictionary;
    location    "system";
    object      controlDict;
}
// * * * * * * * * * * * * * * * * * * * * * * * * * * * * * * * * * * * * * //

application     cplIcoFoam;

startFrom       startTime;

startTime       0;

stopAt          endTime;

endTime         8500;

deltaT          1.0;

writeControl    runTime;

writeInterval   10.0;

purgeWrite      0;

writeFormat     ascii;

writePrecision  6;

writeCompression off;

timeFormat      general;

timePrecision   6;

runTimeModifiable true;

graphFormat     raw;

adjustTimeStep  no;

maxCo           2.0;

maxAlphaCo      1.0;

maxDeltaT       1000;

functions{

bubbleVol
    {
        type            volFieldValue;
        libs            (fieldFunctionObjects);
        writeControl    timeStep;
        writeInterval   10.0;
        writeFields     false;
        log             true;
        operation       volIntegrate;
        fields 		(alpha.vapour);
    }
}
// ************************************************************************* //
