/*--------------------------------*- C++ -*----------------------------------*\
| =========                 |                                                 |
| \\      /  F ield         | OpenFOAM: The Open Source CFD Toolbox           |
|  \\    /   O peration     | Version:  3.0.1                                 |
|   \\  /    A nd           | Web:      www.OpenFOAM.org                      |
|    \\/     M anipulation  |                                                 |
\*---------------------------------------------------------------------------*/
FoamFile
{
    version     2.0;
    format      ascii;
    class       dictionary;
    location    "system";
    object      controlDict;
}
// * * * * * * * * * * * * * * * * * * * * * * * * * * * * * * * * * * * * * //

application     cplIcoFoam;

startFrom       startTime;

startTime       0;

stopAt          endTime;

endTime         8500;

deltaT          1.25;

writeControl    runTime;

writeInterval   12.5;

purgeWrite      0;

writeFormat     ascii;

writePrecision  6;

writeCompression off;

timeFormat      general;

timePrecision   6;

runTimeModifiable true;

graphFormat     raw;

adjustTimeStep  no;

maxCo           2.0;

maxAlphaCo      1.0;

maxDeltaT       1000;

functions{

  bubbleVol
    {
      type            volFieldValue;
      libs            (fieldFunctionObjects);
      writeControl    timeStep;
      writeInterval   10.0;
      writeFields     false;
      log             true;
      operation       volIntegrate;
      fields 		(alpha.vapour);
    }
  
  Taverage_bulk
    {
      type            volFieldValue;
      libs            (fieldFunctionObjects);
      
      // Mandatory entries (runtime modifiable)
      fields          (T);
      operation       volAverage;
      regionType      cellZone;
      name            bulkZone; 
      
      // Optional (inherited) entries
      writeFields     false;
      log             true;
      writeControl    timeStep;
      writeInterval   10;
    }

  Taverage
    {
      type            volFieldValue;
      libs            (fieldFunctionObjects);
      
      // Mandatory entries (runtime modifiable)
      fields          (T);
      operation       volAverage;
      regionType      all;

      // Optional (inherited) entries
      writeFields     false;
      log             true;
      writeControl    timeStep;
      writeInterval   10;
    }

  inletMassFlow //total mass flow rate from the bottom boundary
    {
      type surfaceFieldValue;
      libs (fieldFunctionObjects);
      fields (rhoPhi); //Kg m-2 s-1
      operation sum;
      regionType patch;
      name CPLReceiveMD;
      writeControl timeStep;
      writeInterval 10;
      writeFields false;
      log true;
    }  
};
// ************************************************************************* //
